# ********************************************************************************
# *  Copyright (c) Federal University of Para, brazil - 2011                     *
# *  Developed at the Research Group on Computer Network and Multimedia          *
# *  Communication (GERCOM)                                                      *
# *  All rights reserved						         *
# *  								                 *
# *  Permission to use, copy, modify, and distribute this protocol and its       *             
# *  documentation for any purpose, without fee, and without written             *
# *  agreement is hereby granted, provided that the above copyright notice,      *
# *  and the author appear in all copies of this protocol.                       * 
# *  							                         * 
# *  Module:   LEACH Clustering Protocol for Castalia Simulator                  * 
# *  Version:  0.2                                                               * 
# *  Author(s): Adonias Pires <adonias@ufpa.br>                                  * 
# *             Claudio Silva <claudio.silva@itec.ufpa.br>                       *
# *******************************************************************************/

[General]

#########################
## Network          #####
########################
include ../Parameters/Castalia.ini
include ../Parameters/MAC/CSMA.ini
sim-time-limit = 166000s #166000
SN.field_x = 50						#40
SN.field_y = 50						#10
SN.numNodes = 11	
SN.deployment = "[1..10]->uniform"

#########################
## Traces           #####
########################
SN.wirelessChannel.collectTraceInfo = false
SN.node[*].Communication.Radio.collectTraceInfo = false
SN.node[*].Communication.MAC.collectTraceInfo = false
SN.node[*].Communication.Routing.collectTraceInfo = false	
SN.node[*].Application.collectTraceInfo = false
SN.node[*].SensorManager.collectTraceInfo = false
SN.node[*].ResourceManager.collectTraceInfo = false


#########################
## Energy resource  ####
########################

#SN.node[*].Application.maxBatteryLevel = 11016
#SN.node[*].ResourceManager.initialEnergy = 11016

#########################
## EnergyStorage ########
#########################

SN.node[*].ResourceManager.EnergySubsystem.EnergyStorage.numBatteries = 0
SN.node[*].ResourceManager.EnergySubsystem.EnergyStorage.numRechBatteries = 1

##[Rechargeable battery] 1 Prismatic Battery 3.7V 770mAh

SN.node[*].ResourceManager.EnergySubsystem.EnergyStorage.RechBatteries[0].maxVoltage = 3.7
SN.node[*].ResourceManager.EnergySubsystem.EnergyStorage.RechBatteries[0].mAmpereHour = 770



#########################
## MAC              #####
########################

#-----CSMA-CA-----#

#########################
## Routing         #####
########################	
SN.node[*].Communication.RoutingProtocolName = "LeachRouting"
SN.node[*].Communication.Routing.netBufferSize = 1000 
SN.node[0].Communication.Routing.isSink = true
SN.node[*].Communication.Routing.slotLength = 0.2
SN.node[*].Communication.Routing.roundLength = 10s
SN.node[*].Communication.Routing.percentage = 0.05
SN.node[*].Communication.Routing.powersConfig = xmldoc("powersConfig.xml")
	
#########################
## Application      #####
########################
SN.node[*].ApplicationName = "ThroughputTest"
SN.node[*].Application.packet_rate = 1
SN.node[*].Application.constantDataPayload = 2000

#########################
## Wireless Channel #####
########################
SN.wirelessChannel.onlyStaticNodes = true
SN.wirelessChannel.sigma = 0
SN.wirelessChannel.bidirectionalSigma = 0
SN.wirelessChannel.pathLossExponent = 2.0	# Free Space 

#########################
## Radio           #####
########################
SN.node[*].Communication.Radio.RadioParametersFile = "../Parameters/Radio/CC2420.txt"
